lig_CHEMBL1078691
                    3D
 Schrodinger Suite 2022-3.
 52 55  0  0  1  0            999 V2000
   35.1506    6.9961   16.0497 H   0  0  0  0  0  0
   34.3743    7.0705   16.5998 O   0  0  0  0  0  0
   33.2046    7.3830   15.9898 C   0  0  0  0  0  0
   32.0447    6.9520   16.6533 C   0  0  0  0  0  0
   32.1282    6.3166   17.5227 H   0  0  0  0  0  0
   30.7825    7.3762   16.2356 C   0  0  0  0  0  0
   29.9005    7.0576   16.7698 H   0  0  0  0  0  0
   30.6855    8.2450   15.1420 C   0  0  0  0  0  0
   29.3301    8.7627   14.7491 C   0  0  2  0  0  0
   28.5854    8.3128   15.4086 H   0  0  0  0  0  0
   29.0334    8.2926   13.4113 N   0  0  0  0  0  0
   29.1849    7.3041   13.2524 H   0  0  0  0  0  0
   28.0015    8.9176   12.7152 C   0  0  0  0  0  0
   27.6064    8.3593   11.4896 C   0  0  0  0  0  0
   28.0744    7.4593   11.1200 H   0  0  0  0  0  0
   26.6215    8.9895   10.7190 C   0  0  0  0  0  0
   26.3839    8.5619    9.7591 H   0  0  0  0  0  0
   25.9919   10.1712   11.1752 C   0  0  0  0  0  0
   24.9721   10.8852   10.2862 C   0  0  0  0  0  0
   25.7685   11.7006    9.2629 C   0  0  0  0  0  0
   25.1850   12.2615    8.5441 H   0  0  0  0  0  0
   26.4154   11.0282    8.7187 H   0  0  0  0  0  0
   26.3849   12.4375    9.7712 H   0  0  0  0  0  0
   24.0760   11.8274   11.0884 C   0  0  0  0  0  0
   24.6975   12.5884   11.5194 H   0  0  0  0  0  0
   23.5851   11.3401   11.9242 H   0  0  0  0  0  0
   23.3168   12.3089   10.4711 H   0  0  0  0  0  0
   24.0346    9.8607    9.6499 C   0  0  0  0  0  0
   23.1879   10.2624    9.1189 H   0  0  0  0  0  0
   23.5850    9.3883   10.5023 H   0  0  0  0  0  0
   24.5077    9.1197    9.0090 H   0  0  0  0  0  0
   26.3813   10.7069   12.4232 C   0  0  0  0  0  0
   25.9589   11.6155   12.8183 H   0  0  0  0  0  0
   27.3886   10.1014   13.1842 C   0  0  0  0  0  0
   27.8259   10.7731   14.4732 C   0  0  1  0  0  0
   27.8533   11.8496   14.2952 H   0  0  0  0  0  0
   26.8794   10.5164   15.5097 O   0  0  0  0  0  0
   27.1625   11.1892   16.7294 C   0  0  0  0  0  0
   27.1951   12.2677   16.5678 H   0  0  0  0  0  0
   26.3524   10.9946   17.4323 H   0  0  0  0  0  0
   28.4911   10.6767   17.2983 C   0  0  0  0  0  0
   28.7333   11.1954   18.2261 H   0  0  0  0  0  0
   28.4005    9.6180   17.5453 H   0  0  0  0  0  0
   29.6124   10.8762   16.2710 C   0  0  0  0  0  0
   29.8008   11.9464   16.1678 H   0  0  0  0  0  0
   30.5418   10.4474   16.6445 H   0  0  0  0  0  0
   29.2323   10.3026   14.8842 C   0  0  1  0  0  0
   29.9366   10.7258   14.1662 H   0  0  0  0  0  0
   31.8413    8.6247   14.4221 C   0  0  0  0  0  0
   31.7566    9.2763   13.5652 H   0  0  0  0  0  0
   33.1113    8.1894   14.8427 C   0  0  0  0  0  0
   33.9873    8.5296   14.3176 H   0  0  0  0  0  0
  1  2  1  0  0  0
  2  3  1  0  0  0
  3 51  1  0  0  0
  3  4  2  0  0  0
  4  5  1  0  0  0
  4  6  1  0  0  0
  6  7  1  0  0  0
  6  8  2  0  0  0
  8  9  1  0  0  0
  8 49  1  0  0  0
  9 47  1  0  0  0
  9 10  1  0  0  0
  9 11  1  0  0  0
 11 12  1  0  0  0
 11 13  1  0  0  0
 13 34  1  0  0  0
 13 14  2  0  0  0
 14 15  1  0  0  0
 14 16  1  0  0  0
 16 17  1  0  0  0
 16 18  2  0  0  0
 18 19  1  0  0  0
 18 32  1  0  0  0
 19 20  1  0  0  0
 19 24  1  0  0  0
 19 28  1  0  0  0
 20 21  1  0  0  0
 20 22  1  0  0  0
 20 23  1  0  0  0
 24 25  1  0  0  0
 24 26  1  0  0  0
 24 27  1  0  0  0
 28 29  1  0  0  0
 28 30  1  0  0  0
 28 31  1  0  0  0
 32 33  1  0  0  0
 32 34  2  0  0  0
 34 35  1  0  0  0
 35 47  1  0  0  0
 35 36  1  0  0  0
 35 37  1  0  0  0
 37 38  1  0  0  0
 38 39  1  0  0  0
 38 40  1  0  0  0
 38 41  1  0  0  0
 41 42  1  0  0  0
 41 43  1  0  0  0
 41 44  1  0  0  0
 44 45  1  0  0  0
 44 46  1  0  0  0
 44 47  1  0  0  0
 47 48  1  0  0  0
 49 50  1  0  0  0
 49 51  2  0  0  0
 51 52  1  0  0  0
M  END
> <s_m_source_file>
ligprep_eg5.smi

> <i_m_source_file_index>
3

> <i_lp_mmshare_version>
53161

> <i_f3d_flags>
0

> <s_epik_input>
W09IXWMxW2NIXVtjSF1jKFtjSF1bY0hdMSlbQ0BIXShbTkhdMilbQ0BIXShbQ0gyXVtDSDJdW0NIMl1PMylbQ0BIXTNjKGMyNClbY0hdYyhbY0hdW2NIXTQpQyhbQ0gzXSkoW0NIM10pW0NIM10=

> <s_epik_cmdline>
J2VwaWtfcHl0aG9uJywgJy1waHQnLCAnMC4wJywgJy1waCcsICc3LjQnLCAnLXRuJywgJzgnLCAnLW1hJywgJzUwMCcsICctaW1hZScsICc8aW5maWxlLm1hZT4nLCAnLW9tYWUnLCAnPG91dGZpbGUubWFlPic=

> <r_lp_tautomer_probability>
1

> <r_epik_Ionization_Penalty>
  0.0010

> <r_epik_Ionization_Penalty_Charging>
  0.0000

> <r_epik_Ionization_Penalty_Neutral>
  0.0010

> <r_epik_State_Penalty>
 -0.0000

> <r_epik_Charging_Adjusted_Penalty>
0

> <i_epik_Tot_Q>
0

> <i_epik_Tot_abs_Q>
0

> <s_lp_Force_Field>
S-OPLS

> <r_lp_Energy>
34.1252

> <b_lp_Chiralities_Consistent>
1

> <s_lp_Variant>
lig_CHEMBL1078691-1

> <s_i_glide_gridfile>
glide-grid_EG5-3L9H

> <i_i_glide_lignum>
3

> <i_i_glide_rotatable_bonds>
3

> <r_i_docking_score>
-8.97665928402366

> <r_i_glide_ligand_efficiency>
-0.359066371360946

> <r_i_glide_ligand_efficiency_sa>
-1.04991643792862

> <r_i_glide_ligand_efficiency_ln>
-2.12773725908467

> <r_i_glide_gscore>
-8.97665928402366

> <r_i_glide_lipo>
-5.06383813021649

> <r_i_glide_hbond>
-0.431309273878793

> <r_i_glide_metal>
-0

> <r_i_glide_rewards>
-1.28824924773551

> <r_i_glide_evdw>
-34.2456703186035

> <r_i_glide_ecoul>
-6.52582502365112

> <r_i_glide_erotb>
0.49789463728498

> <r_i_glide_esite>
0

> <r_i_glide_emodel>
-51.6245432573516

> <r_i_glide_energy>
-40.7714953422546

> <r_i_glide_einternal>
1.23162662982941

> <i_i_glide_confnum>
2

> <i_i_glide_posenum>
1

> <r_i_glide_eff_state_penalty>
-0

> <r_i_glide_rmsd>
0.0779755402671082

> <s_glide_core_constrain_type>
snapped_core_restrain

$$$$
lig_CHEMBL1078774
                    3D
 Schrodinger Suite 2022-3.
 52 55  0  0  1  0            999 V2000
   35.1317    7.1361   15.9189 H   0  0  0  0  0  0
   34.3769    7.1037   16.4998 O   0  0  0  0  0  0
   33.1652    7.3943   15.9602 C   0  0  0  0  0  0
   32.0523    6.9447   16.6649 C   0  0  0  0  0  0
   32.1848    6.2954   17.5273 H   0  0  0  0  0  0
   30.7676    7.3612   16.2917 C   0  0  0  0  0  0
   29.9132    7.0126   16.8534 H   0  0  0  0  0  0
   30.6110    8.2402   15.2132 C   0  0  0  0  0  0
   29.2527    8.7515   14.8401 C   0  0  2  0  0  0
   28.5177    8.3167   15.5212 H   0  0  0  0  0  0
   28.9515    8.2587   13.5087 N   0  0  0  0  0  0
   29.1186    7.2738   13.3365 H   0  0  0  0  0  0
   27.9696    8.9051   12.7651 C   0  0  0  0  0  0
   27.6156    8.3613   11.5183 C   0  0  0  0  0  0
   28.0902    7.4551   11.1617 H   0  0  0  0  0  0
   26.6584    8.9961   10.7199 C   0  0  0  0  0  0
   26.4477    8.5667    9.7540 H   0  0  0  0  0  0
   26.0117   10.1756   11.1654 C   0  0  0  0  0  0
   24.9931   10.8765   10.2682 C   0  0  0  0  0  0
   25.7815   11.7127    9.2589 C   0  0  0  0  0  0
   25.1851   12.2654    8.5382 H   0  0  0  0  0  0
   26.4421   11.0483    8.7182 H   0  0  0  0  0  0
   26.3857   12.4520    9.7704 H   0  0  0  0  0  0
   24.0600   11.7945   11.0720 C   0  0  0  0  0  0
   24.6348   12.5868   11.5261 H   0  0  0  0  0  0
   23.5850   11.2763   11.8923 H   0  0  0  0  0  0
   23.2851   12.2360   10.4513 H   0  0  0  0  0  0
   24.0847    9.8280    9.6200 C   0  0  0  0  0  0
   23.2374   10.1884    9.0655 H   0  0  0  0  0  0
   23.5965    9.3881   10.4568 H   0  0  0  0  0  0
   24.5681    9.0774    9.0037 H   0  0  0  0  0  0
   26.3762   10.7143   12.4168 C   0  0  0  0  0  0
   25.9463   11.6243   12.7961 H   0  0  0  0  0  0
   27.3553   10.1016   13.2063 C   0  0  0  0  0  0
   27.7772   10.7805   14.4987 C   0  0  1  0  0  0
   27.8208   11.8547   14.3064 H   0  0  0  0  0  0
   26.8226   10.5519   15.5345 O   0  0  0  0  0  0
   27.1192   11.2365   16.7459 C   0  0  0  0  0  0
   27.1635   12.3123   16.5691 H   0  0  0  0  0  0
   26.3120   11.0645   17.4581 H   0  0  0  0  0  0
   28.4479   10.7181   17.3127 C   0  0  0  0  0  0
   28.6956   11.2441   18.2357 H   0  0  0  0  0  0
   28.3556    9.6619   17.5676 H   0  0  0  0  0  0
   29.5640   10.9118   16.2829 C   0  0  0  0  0  0
   29.7348   11.9812   16.1491 H   0  0  0  0  0  0
   30.5011   10.5045   16.6567 H   0  0  0  0  0  0
   29.1753   10.2968   14.9230 C   0  0  1  0  0  0
   29.8748   10.6986   14.1896 H   0  0  0  0  0  0
   31.7232    8.6610   14.4697 C   0  0  0  0  0  0
   31.6100    9.3232   13.6206 H   0  0  0  0  0  0
   32.9883    8.2352   14.8420 C   0  0  0  0  0  0
   33.9851    8.7065   14.1028 F   0  0  0  0  0  0
  1  2  1  0  0  0
  2  3  1  0  0  0
  3 51  1  0  0  0
  3  4  2  0  0  0
  4  5  1  0  0  0
  4  6  1  0  0  0
  6  7  1  0  0  0
  6  8  2  0  0  0
  8  9  1  0  0  0
  8 49  1  0  0  0
  9 47  1  0  0  0
  9 10  1  0  0  0
  9 11  1  0  0  0
 11 12  1  0  0  0
 11 13  1  0  0  0
 13 34  1  0  0  0
 13 14  2  0  0  0
 14 15  1  0  0  0
 14 16  1  0  0  0
 16 17  1  0  0  0
 16 18  2  0  0  0
 18 19  1  0  0  0
 18 32  1  0  0  0
 19 20  1  0  0  0
 19 24  1  0  0  0
 19 28  1  0  0  0
 20 21  1  0  0  0
 20 22  1  0  0  0
 20 23  1  0  0  0
 24 25  1  0  0  0
 24 26  1  0  0  0
 24 27  1  0  0  0
 28 29  1  0  0  0
 28 30  1  0  0  0
 28 31  1  0  0  0
 32 33  1  0  0  0
 32 34  2  0  0  0
 34 35  1  0  0  0
 35 47  1  0  0  0
 35 36  1  0  0  0
 35 37  1  0  0  0
 37 38  1  0  0  0
 38 39  1  0  0  0
 38 40  1  0  0  0
 38 41  1  0  0  0
 41 42  1  0  0  0
 41 43  1  0  0  0
 41 44  1  0  0  0
 44 45  1  0  0  0
 44 46  1  0  0  0
 44 47  1  0  0  0
 47 48  1  0  0  0
 49 50  1  0  0  0
 49 51  2  0  0  0
 51 52  1  0  0  0
M  END
> <s_m_source_file>
ligprep_eg5.smi

> <i_m_source_file_index>
4

> <i_lp_mmshare_version>
53161

> <i_f3d_flags>
0

> <s_epik_input>
W09IXWMxW2NIXVtjSF1jKFtjSF1jMUYpW0NASF0oW05IXTIpW0NASF0oW0NIMl1bQ0gyXVtDSDJdTzMpW0NASF0zYyhjMjQpW2NIXWMoW2NIXVtjSF00KUMoW0NIM10pKFtDSDNdKVtDSDNd

> <s_epik_cmdline>
J2VwaWtfcHl0aG9uJywgJy1waHQnLCAnMC4wJywgJy1waCcsICc3LjQnLCAnLXRuJywgJzgnLCAnLW1hJywgJzUwMCcsICctaW1hZScsICc8aW5maWxlLm1hZT4nLCAnLW9tYWUnLCAnPG91dGZpbGUubWFlPic=

> <r_lp_tautomer_probability>
1

> <r_epik_Ionization_Penalty>
  0.0129

> <r_epik_Ionization_Penalty_Charging>
  0.0000

> <r_epik_Ionization_Penalty_Neutral>
  0.0129

> <r_epik_State_Penalty>
 -0.0000

> <r_epik_Charging_Adjusted_Penalty>
0

> <i_epik_Tot_Q>
0

> <i_epik_Tot_abs_Q>
0

> <s_lp_Force_Field>
S-OPLS

> <r_lp_Energy>
40.6678

> <b_lp_Chiralities_Consistent>
1

> <s_lp_Variant>
lig_CHEMBL1078774-1

> <s_i_glide_gridfile>
glide-grid_EG5-3L9H

> <i_i_glide_lignum>
4

> <i_i_glide_rotatable_bonds>
3

> <r_i_docking_score>
-8.97337207022735

> <r_i_glide_ligand_efficiency>
-0.345129695008744

> <r_i_glide_ligand_efficiency_sa>
-1.02244536344363

> <r_i_glide_ligand_efficiency_ln>
-2.10736698665757

> <r_i_glide_gscore>
-8.97337207022735

> <r_i_glide_lipo>
-5.06032647734131

> <r_i_glide_hbond>
-0.454813574920432

> <r_i_glide_metal>
-0

> <r_i_glide_rewards>
-1.37207791070462

> <r_i_glide_evdw>
-31.0318450927734

> <r_i_glide_ecoul>
-6.59056234359741

> <r_i_glide_erotb>
0.454022498917303

> <r_i_glide_esite>
0

> <r_i_glide_emodel>
-53.833901517828

> <r_i_glide_energy>
-37.6224074363708

> <r_i_glide_einternal>
1.32856965065002

> <i_i_glide_confnum>
11

> <i_i_glide_posenum>
3

> <r_i_glide_eff_state_penalty>
-0

> <r_i_glide_rmsd>
0.0977424974958633

> <s_glide_core_constrain_type>
snapped_core_restrain
