lig_40
     RDKit          3D

 55 59  0  0  0  0  0  0  0  0999 V2000
   -2.1629   14.4632   -7.7736 H   0  0  0  0  0  0  0  0  0  0  0  0
   -1.6358   13.6804   -7.2468 C   0  0  0  0  0  0  0  0  0  0  0  0
   -0.4242   13.9183   -6.7602 N   0  0  0  0  0  0  0  0  0  0  0  0
   -0.0745   12.7682   -6.1303 N   0  0  0  0  0  0  0  0  0  0  0  0
    1.1739   12.6893   -5.4058 C   0  0  0  0  0  0  0  0  0  0  0  0
    1.3405   11.6624   -5.0598 H   0  0  0  0  0  0  0  0  0  0  0  0
    2.0071   12.9749   -6.0470 H   0  0  0  0  0  0  0  0  0  0  0  0
    1.1432   13.3640   -4.5458 H   0  0  0  0  0  0  0  0  0  0  0  0
   -1.0394   11.7936   -6.2530 C   0  0  0  0  0  0  0  0  0  0  0  0
   -0.9271   10.8145   -5.8143 H   0  0  0  0  0  0  0  0  0  0  0  0
   -2.0646   12.3553   -6.9521 C   0  0  0  0  0  0  0  0  0  0  0  0
   -3.3612   11.7367   -7.2677 C   0  0  0  0  0  0  0  0  0  0  0  0
   -3.4353   10.4402   -7.8240 C   0  0  0  0  0  0  0  0  0  0  0  0
   -2.5291    9.8930   -8.0497 H   0  0  0  0  0  0  0  0  0  0  0  0
   -4.6843    9.8342   -8.0582 C   0  0  0  0  0  0  0  0  0  0  0  0
   -4.7212    8.8327   -8.4668 H   0  0  0  0  0  0  0  0  0  0  0  0
   -5.8788   10.5137   -7.7409 C   0  0  0  0  0  0  0  0  0  0  0  0
   -7.2257    9.8514   -7.9841 C   0  0  0  0  0  0  0  0  0  0  0  0
   -8.0088   10.4290   -7.4862 H   0  0  0  0  0  0  0  0  0  0  0  0
   -7.2161    8.8796   -7.4854 H   0  0  0  0  0  0  0  0  0  0  0  0
   -7.5621    9.6839   -9.4431 C   0  0  0  0  0  0  0  0  0  0  0  0
   -8.2465    8.6457   -9.8601 N   0  0  0  0  0  0  0  0  0  0  0  0
   -8.4159    8.8045  -11.1975 N   0  0  0  0  0  0  0  0  0  0  0  0
   -8.9502    8.1258  -11.7289 H   0  0  0  0  0  0  0  0  0  0  0  0
   -7.8273    9.9474  -11.6947 C   0  0  0  0  0  0  0  0  0  0  0  0
   -7.2413   10.5449  -10.5484 C   0  0  0  0  0  0  0  0  0  0  0  0
   -6.5294   11.7467  -10.7406 C   0  0  0  0  0  0  0  0  0  0  0  0
   -6.0852   12.2336   -9.8863 H   0  0  0  0  0  0  0  0  0  0  0  0
   -6.3563   12.3077  -12.0259 C   0  0  0  0  0  0  0  0  0  0  0  0
   -5.5362   13.5572  -12.1825 C   0  0  0  0  0  0  0  0  0  0  0  0
   -5.9634   14.4904  -12.8591 O   0  0  0  0  0  0  0  0  0  0  0  0
   -4.3771   13.6269  -11.4873 N   0  0  0  0  0  0  0  0  0  0  0  0
   -3.5313   12.4788  -11.1187 C   0  0  0  0  0  0  0  0  0  0  0  0
   -3.9497   11.5214  -11.4400 H   0  0  0  0  0  0  0  0  0  0  0  0
   -3.4548   12.4356  -10.0313 H   0  0  0  0  0  0  0  0  0  0  0  0
   -2.1266   12.6153  -11.7432 C   0  0  0  0  0  0  0  0  0  0  0  0
   -1.4575   11.8547  -11.3364 H   0  0  0  0  0  0  0  0  0  0  0  0
   -2.1916   12.4202  -12.8140 H   0  0  0  0  0  0  0  0  0  0  0  0
   -1.5271   13.9516  -11.4995 N   0  0  0  0  0  4  0  0  0  0  0  0
   -1.2173   13.9804  -10.5399 H   0  0  0  0  0  0  0  0  0  0  0  0
   -2.4434   15.0961  -11.7287 C   0  0  0  0  0  0  0  0  0  0  0  0
   -1.9564   16.0116  -11.3987 H   0  0  0  0  0  0  0  0  0  0  0  0
   -2.6466   15.2159  -12.7917 H   0  0  0  0  0  0  0  0  0  0  0  0
   -3.7957   14.8958  -11.0443 C   0  0  0  0  0  0  0  0  0  0  0  0
   -3.6689   14.8810   -9.9610 H   0  0  0  0  0  0  0  0  0  0  0  0
   -4.4493   15.7424  -11.2583 H   0  0  0  0  0  0  0  0  0  0  0  0
   -7.0022   11.7149  -13.1320 C   0  0  0  0  0  0  0  0  0  0  0  0
   -6.9139   12.1537  -14.1143 H   0  0  0  0  0  0  0  0  0  0  0  0
   -7.7332   10.5264  -12.9709 C   0  0  0  0  0  0  0  0  0  0  0  0
   -8.2191   10.0653  -13.8172 H   0  0  0  0  0  0  0  0  0  0  0  0
   -5.8120   11.8110   -7.1954 C   0  0  0  0  0  0  0  0  0  0  0  0
   -6.7168   12.3529   -6.9524 H   0  0  0  0  0  0  0  0  0  0  0  0
   -4.5610   12.4178   -6.9739 C   0  0  0  0  0  0  0  0  0  0  0  0
   -4.5187   13.4065   -6.5450 H   0  0  0  0  0  0  0  0  0  0  0  0
   -0.7052   14.0647  -12.0846 H   0  0  0  0  0  0  0  0  0  0  0  0
  1  2  1  0
  2 11  1  0
  2  3  2  0
  3  4  1  0
  4  5  1  0
  4  9  1  0
  5  6  1  0
  5  7  1  0
  5  8  1  0
  9 10  1  0
  9 11  2  0
 11 12  1  0
 12 53  1  0
 12 13  2  0
 13 14  1  0
 13 15  1  0
 15 16  1  0
 15 17  2  0
 17 18  1  0
 17 51  1  0
 18 19  1  0
 18 20  1  0
 18 21  1  0
 21 26  1  0
 21 22  2  0
 22 23  1  0
 23 24  1  0
 23 25  1  0
 25 49  1  0
 25 26  2  0
 26 27  1  0
 27 28  1  0
 27 29  2  0
 29 30  1  0
 29 47  1  0
 30 31  2  0
 30 32  1  0
 32 44  1  0
 32 33  1  0
 33 34  1  0
 33 35  1  0
 33 36  1  0
 36 37  1  0
 36 38  1  0
 36 39  1  0
 39 40  1  0
 39 41  1  0
 39 55  1  0
 41 42  1  0
 41 43  1  0
 41 44  1  0
 44 45  1  0
 44 46  1  0
 47 48  1  0
 47 49  2  0
 49 50  1  0
 51 52  1  0
 51 53  2  0
 53 54  1  0
M  CHG  1  39   1
M  END

>  <s_m_source_file>
ligprep_cdk8.smi

>  <i_m_source_file_index>
28

>  <i_lp_mmshare_version>
53161

>  <i_f3d_flags>
0

>  <s_epik_input>
W0NIM11uMW5bY0hdYyhbY0hdMSktYzJbY0hdW2NIXWMoW2NIXVtjSF0yKVtDSDJdYyhuW25IXTMpYyhjMzQpW2NIXWMoW2NIXVtjSF00KUMoPU8pTjVbQ0gyXVtDSDJdW05IXVtDSDJdW0NIMl01

>  <s_epik_cmdline>
J2VwaWtfcHl0aG9uJywgJy1waHQnLCAnMC4wJywgJy1waCcsICc3LjQnLCAnLXRuJywgJzgnLCAnLW1hJywgJzUwMCcsICctaW1hZScsICc8aW5maWxlLm1hZT4nLCAnLW9tYWUnLCAnPG91dGZpbGUubWFlPic=

>  <r_lp_tautomer_probability>
0.98039200000000004

>  <r_epik_Ionization_Penalty>
  0.1225

>  <r_epik_Ionization_Penalty_Charging>
  0.1225

>  <r_epik_Ionization_Penalty_Neutral>
  0.0001

>  <r_epik_State_Penalty>
  0.1120

>  <r_epik_Charging_Adjusted_Penalty>
0.234459

>  <i_epik_Tot_Q>
1

>  <i_epik_Tot_abs_Q>
1

>  <s_lp_Force_Field>
S-OPLS

>  <r_lp_Energy>
47.434600000000003

>  <b_lp_Chiralities_Consistent>
1

>  <s_lp_Variant>
lig_40-1

>  <s_i_glide_gridfile>
glide-grid_CDK8-5HNB

>  <i_i_glide_lignum>
28

>  <i_i_glide_rotatable_bonds>
5

>  <r_i_docking_score>
-10.680521562383699

>  <r_i_glide_ligand_efficiency>
-0.35601738541278899

>  <r_i_glide_ligand_efficiency_sa>
-1.1062287913851501

>  <r_i_glide_ligand_efficiency_ln>
-2.42673087257679

>  <r_i_glide_gscore>
-10.792521562383699

>  <r_i_glide_lipo>
-4.2718306350450801

>  <r_i_glide_hbond>
-0.59065016807439996

>  <r_i_glide_metal>
0

>  <r_i_glide_rewards>
-2.2052956385914499

>  <r_i_glide_evdw>
-48.461879730224602

>  <r_i_glide_ecoul>
-11.060666084289601

>  <r_i_glide_erotb>
0.42590076043445002

>  <r_i_glide_esite>
-0.068451981952531202

>  <r_i_glide_emodel>
-99.420097957526707

>  <r_i_glide_energy>
-59.522545814514203

>  <r_i_glide_einternal>
4.2033767700195304

>  <i_i_glide_confnum>
28

>  <i_i_glide_posenum>
19

>  <r_i_glide_eff_state_penalty>
0.112

>  <r_i_glide_rmsd>
0.097333152874369194

>  <s_glide_core_constrain_type>
snapped_core_restrain

>  <ofe-name>
lig_40

>  <atom.dprop.PartialCharge>
0.036118163636363637 0.23521816363636364 -0.5287818363636364 0.10041816363636363 0.028618163636363637 0.072385163636363631 0.072385163636363631 0.072385163636363631 -0.12028183636363637
0.19601816363636365 -0.20128183636363636 -0.025981836363636362 -0.12848183636363636 0.13651816363636365 -0.11948183636363637 0.14851816363636364 -0.070281836363636371 -0.051381836363636364
0.083218163636363626 0.083218163636363626 0.35791816363636364 -0.48808183636363633 -0.0060818363636363643 0.34071816363636365 -0.020181836363636362 -0.22488183636363634
-0.021981836363636362 0.15101816363636364 -0.20058183636363636 0.69771816363636363 -0.55508183636363639 -0.50978183636363639 0.073018163636363626 0.099718163636363627 0.099718163636363627
0.078818163636363625 0.11046816363636364 0.11046816363636364 -0.76198183636363637 0.45881816363636363 0.078818163636363625 0.11046816363636364 0.11046816363636364 0.073018163636363626
0.099718163636363627 0.099718163636363627 -0.053981836363636362 0.15801816363636365 -0.13898183636363637 0.15801816363636365 -0.11948183636363637 0.14851816363636364 -0.12848183636363636
0.13651816363636365 0.45881816363636363

$$$$
lig_41
     RDKit          3D

 55 59  0  0  0  0  0  0  0  0999 V2000
   -2.0940   14.3956   -7.8003 H   0  0  0  0  0  0  0  0  0  0  0  0
   -1.6017   13.6239   -7.2266 C   0  0  0  0  0  0  0  0  0  0  0  0
   -0.3906   13.8491   -6.7320 N   0  0  0  0  0  0  0  0  0  0  0  0
   -0.0688   12.7144   -6.0644 N   0  0  0  0  0  0  0  0  0  0  0  0
    1.1957   12.6229   -5.3651 C   0  0  0  0  0  0  0  0  0  0  0  0
    1.3268   11.6198   -4.9582 H   0  0  0  0  0  0  0  0  0  0  0  0
    2.0199   12.8371   -6.0449 H   0  0  0  0  0  0  0  0  0  0  0  0
    1.2148   13.3414   -4.5452 H   0  0  0  0  0  0  0  0  0  0  0  0
   -1.0674   11.7696   -6.1429 C   0  0  0  0  0  0  0  0  0  0  0  0
   -0.9864   10.8164   -5.6488 H   0  0  0  0  0  0  0  0  0  0  0  0
   -2.0672   12.3248   -6.8862 C   0  0  0  0  0  0  0  0  0  0  0  0
   -3.3663   11.7213   -7.2183 C   0  0  0  0  0  0  0  0  0  0  0  0
   -3.4422   10.4235   -7.7718 C   0  0  0  0  0  0  0  0  0  0  0  0
   -2.5346    9.8737   -7.9804 H   0  0  0  0  0  0  0  0  0  0  0  0
   -4.6900    9.8316   -8.0456 C   0  0  0  0  0  0  0  0  0  0  0  0
   -4.7266    8.8351   -8.4599 H   0  0  0  0  0  0  0  0  0  0  0  0
   -5.8851   10.5169   -7.7457 C   0  0  0  0  0  0  0  0  0  0  0  0
   -7.2334    9.8517   -7.9879 C   0  0  0  0  0  0  0  0  0  0  0  0
   -8.0159   10.4377   -7.5059 H   0  0  0  0  0  0  0  0  0  0  0  0
   -7.2295    8.8924   -7.4690 H   0  0  0  0  0  0  0  0  0  0  0  0
   -7.5740    9.6595   -9.4434 C   0  0  0  0  0  0  0  0  0  0  0  0
   -8.2466    8.6100   -9.8517 N   0  0  0  0  0  0  0  0  0  0  0  0
   -8.4161    8.7528  -11.1901 N   0  0  0  0  0  0  0  0  0  0  0  0
   -8.9325    8.0540  -11.7148 H   0  0  0  0  0  0  0  0  0  0  0  0
   -7.8492    9.9034  -11.6988 C   0  0  0  0  0  0  0  0  0  0  0  0
   -7.2733   10.5152  -10.5542 C   0  0  0  0  0  0  0  0  0  0  0  0
   -6.5852   11.7254  -10.7494 C   0  0  0  0  0  0  0  0  0  0  0  0
   -6.1416   12.2127   -9.8955 H   0  0  0  0  0  0  0  0  0  0  0  0
   -6.4115   12.2761  -12.0371 C   0  0  0  0  0  0  0  0  0  0  0  0
   -5.5980   13.5247  -12.1904 C   0  0  0  0  0  0  0  0  0  0  0  0
   -6.0453   14.4651  -12.8445 O   0  0  0  0  0  0  0  0  0  0  0  0
   -4.4365   13.5849  -11.4988 N   0  0  0  0  0  0  0  0  0  0  0  0
   -3.9078   14.8617  -11.0123 C   0  0  0  0  0  0  0  0  0  0  0  0
   -3.8358   14.8270   -9.9235 H   0  0  0  0  0  0  0  0  0  0  0  0
   -4.5618   15.7015  -11.2462 H   0  0  0  0  0  0  0  0  0  0  0  0
   -2.5318   15.0946  -11.6256 C   0  0  0  0  0  0  0  0  0  0  0  0
   -2.0928   16.0158  -11.2571 H   0  0  0  0  0  0  0  0  0  0  0  0
   -2.6508   15.2154  -12.6977 H   0  0  0  0  0  0  0  0  0  0  0  0
   -1.5867   13.9366  -11.2919 C   0  0  0  0  0  0  0  0  0  0  0  0
   -0.6468   14.1050  -11.8040 H   0  0  0  0  0  0  0  0  0  0  0  0
   -1.3643   13.9425  -10.2248 H   0  0  0  0  0  0  0  0  0  0  0  0
   -2.1867   12.5771  -11.6800 C   0  0  0  0  0  0  0  0  0  0  0  0
   -2.2113   12.4743  -12.7658 H   0  0  0  0  0  0  0  0  0  0  0  0
   -1.5503   11.7721  -11.3123 H   0  0  0  0  0  0  0  0  0  0  0  0
   -3.6081   12.4272  -11.1131 C   0  0  0  0  0  0  0  0  0  0  0  0
   -3.5739   12.3558  -10.0267 H   0  0  0  0  0  0  0  0  0  0  0  0
   -4.0136   11.4827  -11.4745 H   0  0  0  0  0  0  0  0  0  0  0  0
   -7.0394   11.6742  -13.1502 C   0  0  0  0  0  0  0  0  0  0  0  0
   -6.9504   12.1148  -14.1328 H   0  0  0  0  0  0  0  0  0  0  0  0
   -7.7689   10.4812  -12.9779 C   0  0  0  0  0  0  0  0  0  0  0  0
   -8.2463   10.0157  -13.8273 H   0  0  0  0  0  0  0  0  0  0  0  0
   -5.8146   11.8190   -7.2061 C   0  0  0  0  0  0  0  0  0  0  0  0
   -6.7182   12.3646   -6.9754 H   0  0  0  0  0  0  0  0  0  0  0  0
   -4.5653   12.4185   -6.9578 C   0  0  0  0  0  0  0  0  0  0  0  0
   -4.5306   13.4109   -6.5337 H   0  0  0  0  0  0  0  0  0  0  0  0
  1  2  1  0
  2 11  1  0
  2  3  2  0
  3  4  1  0
  4  5  1  0
  4  9  1  0
  5  6  1  0
  5  7  1  0
  5  8  1  0
  9 10  1  0
  9 11  2  0
 11 12  1  0
 12 54  1  0
 12 13  2  0
 13 14  1  0
 13 15  1  0
 15 16  1  0
 15 17  2  0
 17 18  1  0
 17 52  1  0
 18 19  1  0
 18 20  1  0
 18 21  1  0
 21 26  1  0
 21 22  2  0
 22 23  1  0
 23 24  1  0
 23 25  1  0
 25 50  1  0
 25 26  2  0
 26 27  1  0
 27 28  1  0
 27 29  2  0
 29 30  1  0
 29 48  1  0
 30 31  2  0
 30 32  1  0
 32 45  1  0
 32 33  1  0
 33 34  1  0
 33 35  1  0
 33 36  1  0
 36 37  1  0
 36 38  1  0
 36 39  1  0
 39 40  1  0
 39 41  1  0
 39 42  1  0
 42 43  1  0
 42 44  1  0
 42 45  1  0
 45 46  1  0
 45 47  1  0
 48 49  1  0
 48 50  2  0
 50 51  1  0
 52 53  1  0
 52 54  2  0
 54 55  1  0
M  END

>  <s_m_source_file>
ligprep_cdk8.smi

>  <i_m_source_file_index>
29

>  <i_lp_mmshare_version>
53161

>  <i_f3d_flags>
0

>  <s_epik_input>
W0NIM11uMW5bY0hdYyhbY0hdMSktYzJbY0hdW2NIXWMoW2NIXVtjSF0yKVtDSDJdYyhuW25IXTMpYyhjMzQpW2NIXWMoW2NIXVtjSF00KUMoPU8pTjVbQ0gyXVtDSDJdW0NIMl1bQ0gyXVtDSDJdNQ==

>  <s_epik_cmdline>
J2VwaWtfcHl0aG9uJywgJy1waHQnLCAnMC4wJywgJy1waCcsICc3LjQnLCAnLXRuJywgJzgnLCAnLW1hJywgJzUwMCcsICctaW1hZScsICc8aW5maWxlLm1hZT4nLCAnLW9tYWUnLCAnPG91dGZpbGUubWFlPic=

>  <r_lp_tautomer_probability>
1

>  <r_epik_Ionization_Penalty>
  0.0001

>  <r_epik_Ionization_Penalty_Charging>
  0.0000

>  <ofe-name>
lig_41

>  <atom.dprop.PartialCharge>
0.04415452727272727 0.31125452727272723 -0.50974547272727277 0.086454527272727275 0.040654527272727267 0.058421527272727272 0.058421527272727272 0.058421527272727272 -0.12924547272727271
0.17605452727272727 -0.2122454727272727 0.01605452727272727 -0.12894547272727272 0.13005452727272729 -0.11594547272727274 0.13555452727272729 -0.087245472727272733 -0.04234547272727273
0.066254527272727265 0.066254527272727265 0.36395452727272726 -0.51304547272727274 -0.01604547272727273 0.32075452727272724 -0.037145472727272727 -0.21884547272727273 -0.025945472727272729
0.14905452727272728 -0.16554547272727271 0.66475452727272721 -0.59604547272727271 -0.45074547272727272 0.076554527272727269 0.060504527272727267 0.060504527272727267 -0.10334547272727274
0.050254527272727272 0.050254527272727272 -0.078345472727272727 0.042254527272727271 0.042254527272727271 -0.10334547272727274 0.050254527272727272 0.050254527272727272
0.076554527272727269 0.060504527272727267 0.060504527272727267 -0.059945472727272728 0.15105452727272728 -0.14894547272727271 0.14405452727272727 -0.11594547272727274 0.13555452727272729
-0.12894547272727272 0.13005452727272729

$$$$
lig_30
     RDKit          3D

 53 57  0  0  0  0  0  0  0  0999 V2000
   -0.7872   12.8089  -12.2992 H   0  0  0  0  0  0  0  0  0  0  0  0
   -1.6810   12.4903  -12.2318 O   0  0  0  0  0  0  0  0  0  0  0  0
   -2.2207   12.9887  -11.0250 C   0  0  2  0  0  0  0  0  0  0  0  0
   -1.6495   12.5822  -10.1897 H   0  0  0  0  0  0  0  0  0  0  0  0
   -3.6815   12.5709  -10.9758 C   0  0  0  0  0  0  0  0  0  0  0  0
   -3.8462   11.6095  -11.4691 H   0  0  0  0  0  0  0  0  0  0  0  0
   -3.9905   12.4692   -9.9390 H   0  0  0  0  0  0  0  0  0  0  0  0
   -4.4241   13.6755  -11.5866 N   0  0  0  0  0  0  0  0  0  0  0  0
   -5.6265   13.5854  -12.1973 C   0  0  0  0  0  0  0  0  0  0  0  0
   -6.0768   14.4908  -12.8958 O   0  0  0  0  0  0  0  0  0  0  0  0
   -6.4289   12.3272  -12.0050 C   0  0  0  0  0  0  0  0  0  0  0  0
   -6.6168   11.7969  -10.7099 C   0  0  0  0  0  0  0  0  0  0  0  0
   -6.2085   12.3107   -9.8540 H   0  0  0  0  0  0  0  0  0  0  0  0
   -7.2892   10.5758  -10.5034 C   0  0  0  0  0  0  0  0  0  0  0  0
   -7.8466    9.9372  -11.6429 C   0  0  0  0  0  0  0  0  0  0  0  0
   -7.7616   10.4948  -12.9294 C   0  0  0  0  0  0  0  0  0  0  0  0
   -8.2338   10.0090  -13.7712 H   0  0  0  0  0  0  0  0  0  0  0  0
   -7.0367   11.6895  -13.1113 C   0  0  0  0  0  0  0  0  0  0  0  0
   -6.9384   12.1042  -14.1037 H   0  0  0  0  0  0  0  0  0  0  0  0
   -8.4087    8.7895  -11.1253 N   0  0  0  0  0  0  0  0  0  0  0  0
   -8.9146    8.0807  -11.6463 H   0  0  0  0  0  0  0  0  0  0  0  0
   -8.2463    8.6650   -9.7838 N   0  0  0  0  0  0  0  0  0  0  0  0
   -7.5899    9.7283   -9.3851 C   0  0  0  0  0  0  0  0  0  0  0  0
   -7.2591    9.9313   -7.9327 C   0  0  0  0  0  0  0  0  0  0  0  0
   -8.0228   10.5596   -7.4737 H   0  0  0  0  0  0  0  0  0  0  0  0
   -7.3026    8.9850   -7.3918 H   0  0  0  0  0  0  0  0  0  0  0  0
   -5.8857   10.5450   -7.6982 C   0  0  0  0  0  0  0  0  0  0  0  0
   -4.7155    9.8390   -8.0465 C   0  0  0  0  0  0  0  0  0  0  0  0
   -4.7899    8.8534   -8.4813 H   0  0  0  0  0  0  0  0  0  0  0  0
   -3.4457   10.3996   -7.7905 C   0  0  0  0  0  0  0  0  0  0  0  0
   -2.5579    9.8333   -8.0362 H   0  0  0  0  0  0  0  0  0  0  0  0
   -3.3257   11.6858   -7.2212 C   0  0  0  0  0  0  0  0  0  0  0  0
   -2.0109   12.2862   -6.9485 C   0  0  0  0  0  0  0  0  0  0  0  0
   -0.9802   11.7445   -6.2408 C   0  0  0  0  0  0  0  0  0  0  0  0
   -0.8730   10.8064   -5.7341 H   0  0  0  0  0  0  0  0  0  0  0  0
    0.0037   12.7029   -6.1759 N   0  0  0  0  0  0  0  0  0  0  0  0
    1.2605   12.6437   -5.4522 C   0  0  0  0  0  0  0  0  0  0  0  0
    1.2787   11.7660   -4.8062 H   0  0  0  0  0  0  0  0  0  0  0  0
    2.1045   12.5820   -6.1327 H   0  0  0  0  0  0  0  0  0  0  0  0
    1.3738   13.5350   -4.8370 H   0  0  0  0  0  0  0  0  0  0  0  0
   -0.3416   13.8252   -6.8501 N   0  0  0  0  0  0  0  0  0  0  0  0
   -1.5621   13.5856   -7.3107 C   0  0  0  0  0  0  0  0  0  0  0  0
   -2.0765   14.3558   -7.8632 H   0  0  0  0  0  0  0  0  0  0  0  0
   -4.5022   12.3907   -6.8902 C   0  0  0  0  0  0  0  0  0  0  0  0
   -4.4324   13.3680   -6.4362 H   0  0  0  0  0  0  0  0  0  0  0  0
   -5.7707   11.8235   -7.1167 C   0  0  0  0  0  0  0  0  0  0  0  0
   -6.6533   12.3780   -6.8411 H   0  0  0  0  0  0  0  0  0  0  0  0
   -3.5752   14.8613  -11.7075 C   0  0  0  0  0  0  0  0  0  0  0  0
   -4.0336   15.7303  -11.2344 H   0  0  0  0  0  0  0  0  0  0  0  0
   -3.4217   15.0942  -12.7628 H   0  0  0  0  0  0  0  0  0  0  0  0
   -2.2458   14.5110  -11.0388 C   0  0  0  0  0  0  0  0  0  0  0  0
   -2.2410   14.8972  -10.0218 H   0  0  0  0  0  0  0  0  0  0  0  0
   -1.3883   14.9475  -11.5541 H   0  0  0  0  0  0  0  0  0  0  0  0
  1  2  1  0
  2  3  1  0
  3 51  1  0
  3  4  1  1
  3  5  1  0
  5  6  1  0
  5  7  1  0
  5  8  1  0
  8  9  1  0
  8 48  1  0
  9 10  2  0
  9 11  1  0
 11 18  1  0
 11 12  2  0
 12 13  1  0
 12 14  1  0
 14 23  1  0
 14 15  2  0
 15 16  1  0
 15 20  1  0
 16 17  1  0
 16 18  2  0
 18 19  1  0
 20 21  1  0
 20 22  1  0
 22 23  2  0
 23 24  1  0
 24 25  1  0
 24 26  1  0
 24 27  1  0
 27 46  1  0
 27 28  2  0
 28 29  1  0
 28 30  1  0
 30 31  1  0
 30 32  2  0
 32 33  1  0
 32 44  1  0
 33 42  1  0
 33 34  2  0
 34 35  1  0
 34 36  1  0
 36 37  1  0
 36 41  1  0
 37 38  1  0
 37 39  1  0
 37 40  1  0
 41 42  2  0
 42 43  1  0
 44 45  1  0
 44 46  2  0
 46 47  1  0
 48 49  1  0
 48 50  1  0
 48 51  1  0
 51 52  1  0
 51 53  1  0
M  END

>  <s_m_source_file>
ligprep_cdk8.smi

>  <i_m_source_file_index>
18

>  <i_lp_mmshare_version>
53161

>  <i_f3d_flags>
0

>  <s_epik_input>
W09IXVtDQEBIXTFbQ0gyXU4oW0NIMl1bQ0gyXTEpQyg9TyljKFtjSF0yKVtjSF1bY0hdYyhjMjMpW25IXW5jM1tDSDJdYzRbY0hdW2NIXWMoW2NIXVtjSF00KS1jNVtjSF1uKFtDSDNdKW5bY0hdNQ==

>  <s_epik_cmdline>
J2VwaWtfcHl0aG9uJywgJy1waHQnLCAnMC4wJywgJy1waCcsICc3LjQnLCAnLXRuJywgJzgnLCAnLW1hJywgJzUwMCcsICctaW1hZScsICc8aW5maWxlLm1hZT4nLCAnLW9tYWUnLCAnPG91dGZpbGUubWFlPic=

>  <r_lp_tautomer_probability>
1

>  <r_epik_Ionization_Penalty>
  0.0001

>  <r_epik_Ionization_Penalty_Charging>
  0.0000

>  <r_epik_Ionization_Penalty_Neutral>
  0.0001

>  <r_epik_State_Penalty>
 -0.0000

>  <r_epik_Charging_Adjusted_Penalty>
0

>  <i_epik_Tot_Q>
0

>  <i_epik_Tot_abs_Q>
0

>  <s_lp_Force_Field>
S-OPLS

>  <r_lp_Energy>
35.030500000000004

>  <b_lp_Chiralities_Consistent>
1

>  <s_lp_Variant>
lig_30-1

>  <s_i_glide_gridfile>
glide-grid_CDK8-5HNB

>  <i_i_glide_lignum>
18

>  <i_i_glide_rotatable_bonds>
6

>  <r_i_docking_score>
-10.579279438061199

>  <r_i_glide_ligand_efficiency>
-0.35264264793537298

>  <r_i_glide_ligand_efficiency_sa>
-1.0957426974081499

>  <r_i_glide_ligand_efficiency_ln>
-2.40372755880942

>  <r_i_glide_gscore>
-10.579279438061199

>  <r_i_glide_lipo>
-4.1426126450426102

>  <r_i_glide_hbond>
-0.84002522740766805

>  <r_i_glide_metal>
0

>  <r_i_glide_rewards>
-2.4153608052563298

>  <r_i_glide_evdw>
-49.6699028015137

>  <r_i_glide_ecoul>
-8.0594644546508807

>  <r_i_glide_erotb>
0.51113404791874395

>  <r_i_glide_esite>
0

>  <r_i_glide_emodel>
-93.737816678333004

>  <r_i_glide_energy>
-57.729367256164601

>  <r_i_glide_einternal>
3.3176975250244101

>  <i_i_glide_confnum>
2

>  <i_i_glide_posenum>
10

>  <r_i_glide_eff_state_penalty>
0

>  <r_i_glide_rmsd>
0.057393311469585498

>  <s_glide_core_constrain_type>
snapped_core_restrain

>  <ofe-name>
lig_30

>  <atom.dprop.PartialCharge>
0.40396224528301888 -0.59383775471698108 0.12506224528301885 0.047662245283018864 0.07596224528301887 0.067162245283018868 0.067162245283018868 -0.44783775471698112 0.66666224528301887
-0.59313775471698105 -0.16863775471698114 -0.022037754716981134 0.14796224528301885 -0.22093775471698116 -0.032237754716981135 -0.15103775471698114 0.14396224528301885
-0.055037754716981135 0.15396224528301886 -0.018137754716981137 0.32366224528301885 -0.51213775471698109 0.36286224528301886 -0.041437754716981134 0.065162245283018866 0.065162245283018866
-0.08633775471698113 -0.11603775471698113 0.13496224528301887 -0.12853775471698115 0.12946224528301886 0.015962245283018865 -0.21133775471698113 -0.12933775471698114 0.17696224528301885
0.086362245283018876 0.040562245283018862 0.058329245283018867 0.058329245283018867 0.058329245283018867 -0.50983775471698112 0.31116224528301883 0.044062245283018865 -0.12853775471698115
0.12946224528301886 -0.11603775471698113 0.13496224528301887 0.074962245283018869 0.064162245283018865 0.064162245283018865 -0.13343775471698113 0.058662245283018867 0.058662245283018867

$$$$
